LTspice 24.0.12 for Windows
Circuit: * Z:\home\iwolfs\Work\Projects\acoustic-emissions-hw\simulations\LTSpice\schematics\BVD_V1.asc
Start Time: Fri Apr 25 13:21:55 2025
solver = Normal
Maximum thread count: 12
tnom = 27
temp = 27
method = modified trap
.OP point found by inspection.
Total elapsed time: 0.194 seconds.

