LTspice 24.0.12 for Windows
Circuit: * C:\users\iwolfs\Favorites\acoustic-characterization-hw\simulations\LTSpice\schematics\full_bridge_driver.asc
Start Time: Wed May  7 09:25:53 2025
Questionable use of curly braces in "b§e_abmgate yint 0 v={if(v(a)>{{vthresh}}&v(b)>{{vthresh}},{{vdd}},{{vss}})}"
    Error: undefined symbol in: "if([v](a)>((vthresh))&v(b)>((vthresh)),((vdd)),((vss)))"
Questionable use of curly braces in "b§e_abmgate yint 0 v={if(v(a)>{{vthresh}}&v(b)>{{vthresh}},{{vdd}},{{vss}})}"
    Error: undefined symbol in: "if([v](a)>((vthresh))&v(b)>((vthresh)),((vdd)),((vss)))"
Questionable use of curly braces in "b§e_abmgate yint 0 v={if(v(a)>{{vthresh}}&v(b)>{{vthresh}}&v(c)>{{vthresh}},{{vdd}},{{vss}})}"
    Error: undefined symbol in: "if([v](a)>((vthresh))&v(b)>((vthresh))&v(c)>((vthresh)),((vdd)),((vss)))"
Questionable use of curly braces in "b§e_abmgate yint 0 v={if(v(a)>{{vthresh}}&v(b)>{{vthresh}},{{vss}},{{vdd}})}"
    Error: undefined symbol in: "if([v](a)>((vthresh))&v(b)>((vthresh)),((vss)),((vdd)))"
Questionable use of curly braces in "b§e_abmgate yint 0 v={if(v(a)>{{vthresh}}&v(b)>{{vthresh}}&v(c)>{{vthresh}},{{vdd}},{{vss}})}"
    Error: undefined symbol in: "if([v](a)>((vthresh))&v(b)>((vthresh))&v(c)>((vthresh)),((vdd)),((vss)))"
Questionable use of curly braces in "b§e_abmgate yint 0 v={if(v(a)>{{vthresh}}&v(b)>{{vthresh}},{{vdd}},{{vss}})}"
    Error: undefined symbol in: "if([v](a)>((vthresh))&v(b)>((vthresh)),((vdd)),((vss)))"
Questionable use of curly braces in "b§e_abmgate yint 0 v={if(v(a)>{{vthresh}}&v(b)>{{vthresh}},{{vdd}},{{vss}})}"
    Error: undefined symbol in: "if([v](a)>((vthresh))&v(b)>((vthresh)),((vdd)),((vss)))"
Questionable use of curly braces in "b§e_abmgate yint 0 v={if(v(a)>{{vthresh}}&v(b)>{{vthresh}}&v(c)>{{vthresh}},{{vdd}},{{vss}})}"
    Error: undefined symbol in: "if([v](a)>((vthresh))&v(b)>((vthresh))&v(c)>((vthresh)),((vdd)),((vss)))"
Questionable use of curly braces in "b§e_abmgate yint 0 v={if(v(a)>{{vthresh}}&v(b)>{{vthresh}},{{vss}},{{vdd}})}"
    Error: undefined symbol in: "if([v](a)>((vthresh))&v(b)>((vthresh)),((vss)),((vdd)))"
Questionable use of curly braces in "b§e_abmgate yint 0 v={if(v(a)>{{vthresh}}&v(b)>{{vthresh}}&v(c)>{{vthresh}},{{vdd}},{{vss}})}"
    Error: undefined symbol in: "if([v](a)>((vthresh))&v(b)>((vthresh))&v(c)>((vthresh)),((vdd)),((vss)))"
Questionable use of curly braces in "b§e_abmgate yint 0 v={if(v(a)>{{vthresh}},{{vdd}},{{vss}})}"
    Error: undefined symbol in: "if([v](a)>((vthresh)),((vdd)),((vss)))"
Questionable use of curly braces in "b§e_abmgate yint 0 v={if(v(a)>{{vthresh}},{{vdd}},{{vss}})}"
    Error: undefined symbol in: "if([v](a)>((vthresh)),((vdd)),((vss)))"
Questionable use of curly braces in "b§e_abmgate yint 0 v={if(v(a)>{{vthresh}},{{vdd}},{{vss}})}"
    Error: undefined symbol in: "if([v](a)>((vthresh)),((vdd)),((vss)))"
Questionable use of curly braces in "b§e_abmgate yint 0 v={if(v(a)>{{vthresh}},{{vdd}},{{vss}})}"
    Error: undefined symbol in: "if([v](a)>((vthresh)),((vdd)),((vss)))"
solver = Normal
Maximum thread count: 12
tnom = 27
temp = 27
method = modified trap
Instance "m:u4:1": Length shorter than recommended for a level 3 MOSFET.
Instance "m:u4:2": Length shorter than recommended for a level 3 MOSFET.
Instance "m:u5:1": Length shorter than recommended for a level 3 MOSFET.
Instance "m:u5:2": Length shorter than recommended for a level 3 MOSFET.
Instance "m:u6:1": Length shorter than recommended for a level 3 MOSFET.
Instance "m:u6:2": Length shorter than recommended for a level 3 MOSFET.
Instance "m:u7:1": Length shorter than recommended for a level 3 MOSFET.
Instance "m:u7:2": Length shorter than recommended for a level 3 MOSFET.
Direct Newton iteration failed to find .op point.  (Use ".option noopiter" to skip.)
Starting Gmin stepping
Gmin = 10
Gmin = 1.07374
Gmin = 0.115292
Gmin = 0.0123794
Gmin = 0.00132923
Gmin = 0.000142725
Gmin = 1.5325e-05
Gmin = 1.6455e-06
Gmin = 1.76685e-07
Gmin = 1.89714e-08
Gmin = 2.03704e-09
Gmin = 2.18725e-10
Gmin = 2.34854e-11
Gmin = 2.52173e-12
vernier = 0.5
Gmin = 4.23076e-13
vernier = 0.25
Gmin = 2.1944e-13
vernier = 0.125
vernier = 0.0625
vernier = 0.03125
vernier = 0.015625
vernier = 0.0078125
vernier = 0.00390625
Gmin = 2.32928e-13
vernier = 0.00195312
vernier = 0.000976562
vernier = 0.000488281
Gmin = 0
Gmin stepping failed

Starting source stepping with srcstepmethod=0
Source Step = 3.0303%
Source Step = 33.3333%
Source Step = 63.6364%
Source Step = 73.4878%
Source Step = 73.5174%
Source Step = 73.547%
Source Step = 73.5766%
Source Step = 73.6062%
Source Step = 73.6358%
vernier = 0.00146484
Source Step = 73.6728%
Source Step = 73.7172%
Source Step = 73.7615%
Source Step = 73.8059%
Source Step = 73.8503%
vernier = 0.00219727
Source Step = 73.9036%
Source Step = 73.9702%
Source Step = 74.0368%
Source Step = 74.1033%
Source Step = 74.1699%
vernier = 0.0032959
Source Step = 74.2465%
Source Step = 74.3464%
Source Step = 74.4462%
Source Step = 74.5461%
Source Step = 74.646%
vernier = 0.00494385
Source Step = 74.7559%
Source Step = 74.9057%
Source Step = 75.0555%
Source Step = 75.2053%
Source Step = 75.3551%
vernier = 0.00741577
Source Step = 75.5124%
Source Step = 75.7371%
Source Step = 75.9619%
Source Step = 76.1866%
Source Step = 76.4113%
Source Step = 76.636%
vernier = 0.0111237
Source Step = 76.9731%
Source Step = 77.3102%
Source Step = 77.6473%
Source Step = 77.9843%
Source Step = 78.3214%
vernier = 0.0166855
Source Step = 78.8102%
Source Step = 79.3158%
Source Step = 79.8214%
Source Step = 80.3271%
Source Step = 80.8327%
vernier = 0.0250282
Source Step = 81.5405%
Source Step = 82.299%
Source Step = 83.0574%
Source Step = 83.8158%
Source Step = 84.5743%
vernier = 0.0375423
Source Step = 85.5981%
Source Step = 86.7358%
Source Step = 87.8734%
Source Step = 89.0111%
Source Step = 90.1487%
vernier = 0.0563135
Source Step = 91.6277%
Source Step = 92.3183%
Source Step = 92.3449%
Source Step = 92.3716%
Source Step = 92.3983%
Source Step = 92.4249%
Source Step = 92.4516%
Source Step = 92.4782%
Source Step = 92.5049%
Source Step = 92.5316%
Source Step = 92.5582%
Source Step = 92.5849%
Source Step = 92.6116%
Source Step = 92.6382%
Source Step = 92.6649%
Source Step = 92.6916%
Source Step = 92.7182%
Source Step = 92.7449%
Source Step = 92.7715%
Source Step = 92.7982%
Source Step = 92.8249%
Source Step = 92.8515%
Source Step = 92.8782%
Source Step = 92.9049%
Source Step = 92.9315%
Source Step = 92.9582%
Source Step = 92.9849%
Source Step = 93.0115%
Source Step = 93.0382%
Source Step = 93.0648%
Source Step = 93.0915%
Source Step = 93.1182%
Source Step = 93.1448%
Source Step = 93.1715%
Source Step = 93.1982%
Source Step = 93.2248%
Source Step = 93.2515%
Source Step = 93.2782%
Source Step = 93.3048%
Source Step = 93.3315%
Source Step = 93.3581%
Source Step = 93.3848%
Source Step = 93.4115%
Source Step = 93.4381%
Source Step = 93.4648%
Source Step = 93.4915%
Source Step = 93.5181%
Source Step = 93.5448%
Source Step = 93.5715%
Source Step = 93.5981%
Source Step = 93.6248%
Source Step = 93.6514%
Source Step = 93.6781%
Source Step = 93.7048%
Source Step = 93.7314%
Source Step = 93.7581%
Source Step = 93.7848%
Source Step = 93.8114%
Source Step = 93.8381%
Source Step = 93.8648%
Source Step = 93.8914%
Source Step = 93.9181%
Source Step = 93.9447%
Source Step = 93.9714%
Source Step = 93.9981%
Source Step = 94.0247%
Source Step = 94.0514%
Source Step = 94.0781%
Source Step = 94.1047%
Source Step = 94.1314%
Source Step = 94.1581%
Source Step = 94.1847%
Source Step = 94.2114%
Source Step = 94.238%
Source Step = 94.2647%
Source Step = 94.2914%
Source Step = 94.318%
Source Step = 94.3447%
Source Step = 94.3714%
Source Step = 94.398%
Source Step = 94.4247%
Source Step = 94.4514%
Source Step = 94.478%
Source Step = 94.5047%
Source Step = 94.5313%
Source Step = 94.558%
Source Step = 94.5847%
Source Step = 94.6113%
Source Step = 94.638%
Source Step = 94.6647%
Source Step = 94.6913%
Source Step = 94.718%
Source Step = 94.7447%
Source Step = 94.7713%
Source Step = 94.798%
Source Step = 94.8246%
Source Step = 94.8513%
Source Step = 94.878%
Source Step = 94.9046%
Source Step = 94.9313%
Source Step = 94.958%
Source Step = 94.9846%
Source Step = 95.0113%
Source Step = 95.0379%
Source Step = 95.0646%
Source Step = 95.0913%
Source Step = 95.1179%
Source Step = 95.1446%
Source Step = 95.1713%
Source Step = 95.1979%
Source Step = 95.2246%
Source Step = 95.2513%
Source Step = 95.2779%
Source Step = 95.3046%
Source Step = 95.3312%
Source Step = 95.3579%
Source Step = 95.3846%
Source Step = 95.4112%
Source Step = 95.4379%
Source Step = 95.4646%
Source Step = 95.4912%
Source Step = 95.5179%
Source Step = 95.5446%
Source Step = 95.5712%
Source Step = 95.5979%
Source Step = 95.6245%
Source Step = 95.6512%
Source Step = 95.6779%
Source Step = 95.7045%
Source Step = 95.7312%
Source Step = 95.7579%
Source Step = 95.7845%
Source Step = 95.8112%
Source Step = 95.8379%
Source Step = 95.8645%
Source Step = 95.8912%
Source Step = 95.9178%
Source Step = 95.9445%
Source Step = 95.9712%
Source Step = 95.9978%
Source Step = 96.0245%
Source Step = 96.0512%
Source Step = 96.0778%
Source Step = 96.1045%
Source Step = 96.1312%
Source Step = 96.1578%
Source Step = 96.1845%
Source Step = 96.2111%
Source Step = 96.2378%
Source Step = 96.2645%
Source Step = 96.2911%
Source Step = 96.3178%
Source Step = 96.3445%
Source Step = 96.3711%
Source Step = 96.3978%
Source Step = 96.4245%
Source Step = 96.4511%
Source Step = 96.4778%
Source Step = 96.5044%
Source Step = 96.5311%
Source Step = 96.5578%
Source Step = 96.5844%
Source Step = 96.6111%
Source Step = 96.6378%
Source Step = 96.6644%
Source Step = 96.6911%
Source Step = 96.7178%
Source Step = 96.7444%
Source Step = 96.7711%
Source Step = 96.7977%
Source Step = 96.8244%
Source Step = 96.8511%
Source Step = 96.8777%
Source Step = 96.9044%
Source Step = 96.9311%
Source Step = 96.9577%
Source Step = 96.9844%
Source Step = 97.0111%
Source Step = 97.0377%
Source Step = 97.0644%
Source Step = 97.091%
Source Step = 97.1177%
Source Step = 97.1444%
Source Step = 97.171%
Source Step = 97.1977%
Source Step = 97.2244%
Source Step = 97.251%
Source Step = 97.2777%
Source Step = 97.3044%
Source Step = 97.331%
Source Step = 97.3577%
Source Step = 97.3843%
Source Step = 97.411%
Source Step = 97.4377%
Source Step = 97.4643%
Source Step = 97.491%
Source Step = 97.5177%
Source Step = 97.5443%
Source Step = 97.571%
Source Step = 97.5977%
Source Step = 97.6243%
Source Step = 97.651%
Source Step = 97.6776%
Source Step = 97.7043%
Source Step = 97.731%
Source Step = 97.7576%
Source Step = 97.7843%
Source Step = 97.811%
Source Step = 97.8376%
Source Step = 97.8643%
Source Step = 97.891%
Source Step = 97.9176%
Source Step = 97.9443%
Source Step = 97.9709%
Source Step = 97.9976%
Source Step = 98.0243%
Source Step = 98.0509%
Source Step = 98.0776%
Source Step = 98.1043%
Source Step = 98.1309%
Source Step = 98.1576%
Source Step = 98.1843%
Source Step = 98.2109%
Source Step = 98.2376%
Source Step = 98.2642%
Source Step = 98.2909%
Source Step = 98.3176%
Source Step = 98.3442%
Source Step = 98.3709%
Source Step = 98.3976%
Source Step = 98.4242%
Source Step = 98.4509%
Source Step = 98.4776%
Source Step = 98.5042%
Source Step = 98.5309%
Source Step = 98.5575%
Source Step = 98.5842%
Source Step = 98.6109%
Source Step = 98.6375%
Source Step = 98.6642%
Source Step = 98.6909%
Source Step = 98.7175%
Source Step = 98.7442%
Source Step = 98.7709%
Source Step = 98.7975%
Source Step = 98.8242%
Source Step = 98.8508%
Source Step = 98.8775%
Source Step = 98.9042%
Source Step = 98.9308%
Source Step = 98.9575%
Source Step = 98.9842%
Source Step = 99.0108%
Source Step = 99.0375%
Source Step = 99.0642%
Source Step = 99.0908%
Source Step = 99.1175%
Source Step = 99.1441%
Source Step = 99.1708%
Source Step = 99.1975%
Source Step = 99.2241%
Source Step = 99.2508%
Source Step = 99.2775%
Source Step = 99.3041%
Source Step = 99.3308%
Source Step = 99.3575%
Source Step = 99.3841%
Source Step = 99.4108%
Source Step = 99.4374%
Source Step = 99.4641%
Source Step = 99.4908%
Source Step = 99.5174%
Source Step = 99.5441%
Source Step = 99.5708%
Source Step = 99.5974%
Source Step = 99.6241%
Source Step = 99.6508%
Source Step = 99.6774%
Source Step = 99.7041%
Source Step = 99.7307%
Source Step = 99.7574%
Source Step = 99.7841%
Source Step = 99.8107%
Source Step = 99.8374%
Source Step = 99.8641%
Source Step = 99.8907%
Source Step = 99.9174%
Source Step = 99.9441%
Source Step = 99.9707%
Source Step = 99.9974%
Source Step = 100%
Source Step = 100%
Source Step = 100%
Source Step = 100%
Source Step = 100%
Source Step = 100%
Source Step = 100%
Source Step = 100%
Source Step = 100%
Source Step = 100%
Source Step = 100%
Source Step = 100%
Source Step = 100%
Source Step = 100%
Source Step = 100%
Source Step = 100%
Source Step = 100%
Source Step = 100%
Source Step = 100%
Source Step = 100%
Source Step = 100%
Source Step = 100%
Source Step = 100%
Source Step = 100%
Source Step = 100%
Source Step = 100%
Source Step = 100%
Source Step = 100%
Source Step = 100%
Source Step = 100%
Source Step = 100%
Source Step = 100%
Source Step = 100%
Source Step = 100%
Source Step = 100%
Source Step = 100%
Source Step = 100%
Source Step = 100%
Source Step = 100%
Source Step = 100%
Source Step = 100%
Source Step = 100%
Source Step = 100%
Source Step = 100%
Source Step = 100%
Source Step = 100%
Source Step = 100%
Source Step = 100%
Source Step = 100%
Source Step = 100%
Source Step = 100%
Source Step = 100%
Source Step = 100%
Source Step = 100%
Source Step = 100%
Source Step = 100%
Source Step = 100%
Source Step = 100%
Source Step = 100%
Source Step = 100%
Source Step = 100%
Source Step = 100%
Source Step = 100%
Source Step = 100%
Source Step = 100%
Source Step = 100%
Source Step = 100%
Source Step = 100%
Source Step = 100%
Source Step = 100%
Source Step = 100%
Source Step = 100%
Source Step = 100%
Source Step = 100%
Source Step = 100%
Source Step = 100%
Source Step = 100%
Source Step = 100%
Source Step = 100%
Source Step = 100%
Source Step = 100%
Source Step = 100%
Source Step = 100%
Source Step = 100%
Source Step = 100%
Source Step = 100%
Source Step = 100%
Source stepping aborted.
Starting source stepping with srcstepmethod=1
Source Step = 3.0303%
Source Step = 33.3333%
Source Step = 44.7443%
Source Step = 44.8568%
Source Step = 44.8864%
Source Step = 44.916%
Source Step = 44.9455%
Source Step = 44.9751%
vernier = 0.00146484
Source Step = 45.0092%
Source Step = 45.0536%
Source Step = 45.098%
Source Step = 45.1423%
Source Step = 45.1867%
Source Step = 45.2311%
Source Step = 45.2755%
Source Step = 45.3199%
vernier = 0.00219727
Source Step = 45.3687%
Source Step = 45.4353%
Source Step = 45.5019%
Source Step = 45.5685%
Source Step = 45.6351%
vernier = 0.0032959
Source Step = 45.705%
Source Step = 45.8049%
Source Step = 45.9047%
Source Step = 46.0046%
Source Step = 46.1045%
Source Step = 46.2044%
vernier = 0.00494385
Source Step = 46.3542%
Source Step = 46.504%
Source Step = 46.6538%
Source Step = 46.8036%
Source Step = 46.9534%
vernier = 0.00741577
Source Step = 47.1707%
Source Step = 47.3954%
Source Step = 47.6201%
Source Step = 47.8448%
Source Step = 48.0695%
vernier = 0.0111237
Source Step = 48.3841%
Source Step = 48.7212%
Source Step = 49.0583%
Source Step = 49.3954%
Source Step = 49.7325%
vernier = 0.0166855
Source Step = 50.1875%
Source Step = 50.6931%
Source Step = 51.1988%
Source Step = 51.7044%
Source Step = 52.21%
vernier = 0.0250282
Source Step = 52.8673%
Source Step = 53.6257%
Source Step = 54.3842%
Source Step = 55.1426%
Source Step = 55.901%
vernier = 0.0375423
Source Step = 56.8491%
Source Step = 57.9867%
Source Step = 59.1244%
Source Step = 60.262%
Source Step = 61.3997%
vernier = 0.0563135
Source Step = 62.7648%
Source Step = 64.4713%
Source Step = 66.1778%
Source Step = 67.8842%
Source Step = 69.5907%
vernier = 0.0844703
Source Step = 71.5532%
Source Step = 74.1129%
Source Step = 76.6726%
Source Step = 79.2323%
Source Step = 81.792%
vernier = 0.126705
Source Step = 84.6077%
Source Step = 88.4472%
Source Step = 92.2868%
Source Step = 93.4626%
Source Step = 93.5226%
Source Step = 93.5826%
Source Step = 93.6426%
Source Step = 93.7026%
Source Step = 93.7626%
Source Step = 93.8226%
Source Step = 93.8826%
Source Step = 93.9426%
Source Step = 94.0026%
Source Step = 94.0626%
Source Step = 94.1226%
Source Step = 94.1826%
Source Step = 94.2425%
Source Step = 94.3025%
Source Step = 94.3625%
Source Step = 94.4225%
Source Step = 94.4825%
Source Step = 94.5425%
Source Step = 94.6025%
Source Step = 94.6625%
Source Step = 94.7225%
Source Step = 94.7825%
Source Step = 94.8425%
Source Step = 94.9025%
Source Step = 94.9625%
Source Step = 95.0225%
Source Step = 95.0824%
Source Step = 95.1424%
Source Step = 95.2024%
Source Step = 95.2624%
Source Step = 95.3224%
Source Step = 95.3824%
Source Step = 95.4424%
Source Step = 95.5024%
Source Step = 95.5624%
Source Step = 95.6224%
Source Step = 95.6824%
Source Step = 95.7424%
Source Step = 95.8024%
Source Step = 95.8624%
Source Step = 95.9224%
Source Step = 95.9823%
Source Step = 96.0423%
Source Step = 96.1023%
Source Step = 96.1623%
Source Step = 96.2223%
Source Step = 96.2823%
Source Step = 96.3423%
Source Step = 96.4023%
Source Step = 96.4623%
Source Step = 96.5223%
Source Step = 96.5823%
Source Step = 96.6423%
Source Step = 96.7023%
Source Step = 96.7623%
Source Step = 96.8222%
Source Step = 96.8822%
Source Step = 96.9422%
Source Step = 97.0022%
Source Step = 97.0622%
Source Step = 97.1222%
Source Step = 97.1822%
Source Step = 97.2422%
Source Step = 97.3022%
Source Step = 97.3622%
Source Step = 97.4222%
Source Step = 97.4822%
Source Step = 97.5422%
Source Step = 97.6022%
Source Step = 97.6622%
Source Step = 97.7221%
Source Step = 97.7821%
Source Step = 97.8421%
Source Step = 97.9021%
Source Step = 97.9621%
Source Step = 98.0221%
Source Step = 98.0821%
Source Step = 98.1421%
Source Step = 98.2021%
Source Step = 98.2621%
Source Step = 98.3221%
Source Step = 98.3821%
Source Step = 98.4421%
Source Step = 98.5021%
Source Step = 98.562%
Source Step = 98.622%
Source Step = 98.682%
Source Step = 98.742%
Source Step = 98.802%
Source Step = 98.862%
Source Step = 98.922%
Source Step = 98.982%
Source Step = 99.042%
Source Step = 99.102%
Source Step = 99.162%
Source Step = 99.222%
Source Step = 99.282%
Source Step = 99.342%
Source Step = 99.402%
Source Step = 99.4619%
Source Step = 99.5219%
Source Step = 99.5819%
Source Step = 99.6419%
Source Step = 99.7019%
Source Step = 99.7619%
Source Step = 99.8219%
Source Step = 99.8819%
Source Step = 99.9419%
Source Step = 100%
Source Step = 100%
Source Step = 100%
Source Step = 100%
Source Step = 100%
Source Step = 100%
Source Step = 100%
Source Step = 100%
Source Step = 100%
Source Step = 100%
Source Step = 100%
Source Step = 100%
Source Step = 100%
Source Step = 100%
Source Step = 100%
Source Step = 100%
Source Step = 100%
Source Step = 100%
Source Step = 100%
Source Step = 100%
Source Step = 100%
Source Step = 100%
Source Step = 100%
Source Step = 100%
Source Step = 100%
Source Step = 100%
Source Step = 100%
Source Step = 100%
Source Step = 100%
Source Step = 100%
Source Step = 100%
Source Step = 100%
Source Step = 100%
Source Step = 100%
Source Step = 100%
Source Step = 100%
Source Step = 100%
Source Step = 100%
Source Step = 100%
Source Step = 100%
Source Step = 100%
Source Step = 100%
Source Step = 100%
Source Step = 100%
Source Step = 100%
Source Step = 100%
Source Step = 100%
Source Step = 100%
Source Step = 100%
Source Step = 100%
Source Step = 100%
Source Step = 100%
Source Step = 100%
Source Step = 100%
Source Step = 100%
Source Step = 100%
Source Step = 100%
Source Step = 100%
Source Step = 100%
Source Step = 100%
Source Step = 100%
Source Step = 100%
Source Step = 100%
Source Step = 100%
Source Step = 100%
Source Step = 100%
Source Step = 100%
Source Step = 100%
Source Step = 100%
Source Step = 100%
Source Step = 100%
Source Step = 100%
Source Step = 100%
Source Step = 100%
Source Step = 100%
Source Step = 100%
Source Step = 100%
Source Step = 100%
Source Step = 100%
Source Step = 100%
Source Step = 100%
Source Step = 100%
Source Step = 100%
Source Step = 100%
Source Step = 100%
Source Step = 100%
Source Step = 100%
Source Step = 100%
Source Step = 100%
Source Step = 100%
Source Step = 100%
Source Step = 100%
Source Step = 100%
Source Step = 100%
Source Step = 100%
Source Step = 100%
Source Step = 100%
Source Step = 100%
Source Step = 100%
Source Step = 100%
Source Step = 100%
Source Step = 100%
Source Step = 100%
Source Step = 100%
Source Step = 100%
Source Step = 100%
Source Step = 100%
Source Step = 100%
Source Step = 100%
Source Step = 100%
Source Step = 100%
Source Step = 100%
Source Step = 100%
Source Step = 100%
Source Step = 100%
Source Step = 100%
Source Step = 100%
Source Step = 100%
Source Step = 100%
Source Step = 100%
Source Step = 100%
Source Step = 100%
Source Step = 100%
Source Step = 100%
Source Step = 100%
Source Step = 100%
Source Step = 100%
Source Step = 100%
Source Step = 100%
Source Step = 100%
Source Step = 100%
Source Step = 100%
Source Step = 100%
Source Step = 100%
Source Step = 100%
Source Step = 100%
Source Step = 100%
Source Step = 100%
Source Step = 100%
Source Step = 100%
Source Step = 100%
Source Step = 100%
Source Step = 100%
Source Step = 100%
Source Step = 100%
Source Step = 100%
Source Step = 100%
Source Step = 100%
Source Step = 100%
Source Step = 100%
Source Step = 100%
Source Step = 100%
Source Step = 100%
Source Step = 100%
Source Step = 100%
Source Step = 100%
Source Step = 100%
Source Step = 100%
Source Step = 100%
Source Step = 100%
Source Step = 100%
Source Step = 100%
Source Step = 100%
Source Step = 100%
Source Step = 100%
Source Step = 100%
Source Step = 100%
Source Step = 100%
Source Step = 100%
Source Step = 100%
Source Step = 100%
Source Step = 100%
Source Step = 100%
Source Step = 100%
Source Step = 100%
Source Step = 100%
Source Step = 100%
Source Step = 100%
Source Step = 100%
Source Step = 100%
Source Step = 100%
Source Step = 100%
Source Step = 100%
Source Step = 100%
Source Step = 100%
Source Step = 100%
Source Step = 100%
Source Step = 100%
Source Step = 100%
Source Step = 100%
Source Step = 100%
Source Step = 100%
Source Step = 100%
Source Step = 100%
Source Step = 100%
Source Step = 100%
Source Step = 100%
Source Step = 100%
Source Step = 100%
Source Step = 100%
Source Step = 100%
Source Step = 100%
Source Step = 100%
Source Step = 100%
Source Step = 100%
Source Step = 100%
Source Step = 100%
Source Step = 100%
Source Step = 100%
Source Step = 100%
Source Step = 100%
Source Step = 100%
Source Step = 100%
Source Step = 100%
Source Step = 100%
Source Step = 100%
Source Step = 100%
Source Step = 100%
Source Step = 100%
Source Step = 100%
Source Step = 100%
Source Step = 100%
Source Step = 100%
Source Step = 100%
Source Step = 100%
Source Step = 100%
Source Step = 100%
Source Step = 100%
Source Step = 100%
Source Step = 100%
Source Step = 100%
Source Step = 100%
Source Step = 100%
Source Step = 100%
Source Step = 100%
Source Step = 100%
Source Step = 100%
Source Step = 100%
Source Step = 100%
Source Step = 100%
Source Step = 100%
Source Step = 100%
Source Step = 100%
Source Step = 100%
Source Step = 100%
Source Step = 100%
Source Step = 100%
Source Step = 100%
Source Step = 100%
Source Step = 100%
Source Step = 100%
Source Step = 100%
Source Step = 100%
Source Step = 100%
Source Step = 100%
Source Step = 100%
Source Step = 100%
Source Step = 100%
Source Step = 100%
Source Step = 100%
Source Step = 100%
Source Step = 100%
Source Step = 100%
Source Step = 100%
Source stepping aborted.
Pseudo Transient succeeded in finding the operating point at 306.963 ms.
Changing Tseed to 1e-13
Heightened Def Con from 1.05494e-13 to 2.00105e-10
Heightened Def Con from 2.92894e-07 to 2.93194e-07
Heightened Def Con from 2.9821e-07 to 2.9871e-07
Heightened Def Con from 2.99821e-07 to 3.0001e-07
Heightened Def Con from 3.01652e-07 to 3.02752e-07

periodic_current_integral: INTEG(i(c2)+i(r1))=7.09718e-07 FROM 1.044e-05 TO 1.074e-05
peak_current_integral: INTEG(i(c2)+i(r1))=9.8155e-08 FROM 1.0524e-05 TO 1.0536e-05
average_current=2.99987e-05 FROM 0 TO 2.99987e-05
rms_current: RMS(i(c2)+i(r1))=2.92444 FROM 1e-05 TO 1.06e-05

Total elapsed time: 55.585 seconds.

