LTspice 24.0.12 for Windows
Circuit: * Z:\home\iwolfs\Work\Projects\acoustic-emissions-hw\simulations\LTSpice\schematics\full_bridge_driver.asc
Start Time: Fri Apr 25 22:42:52 2025
solver = Normal
Maximum thread count: 12
tnom = 27
temp = 27
method = modified trap
.OP point found by inspection.
Total elapsed time: 129.943 seconds.

