LTspice 24.0.12 for Windows
Circuit: * C:\users\iwolfs\Favorites\acoustic-characterization-hw\simulations\LTSpice\schematics\full_bridge_driver.asc
Start Time: Sun Apr 27 17:33:03 2025
Questionable use of curly braces in "b§e_abmgate yint 0 v={if(v(a)>{{vthresh}}&v(b)>{{vthresh}},{{vdd}},{{vss}})}"
    Error: undefined symbol in: "if([v](a)>((vthresh))&v(b)>((vthresh)),((vdd)),((vss)))"
Questionable use of curly braces in "b§e_abmgate yint 0 v={if(v(a)>{{vthresh}}&v(b)>{{vthresh}},{{vdd}},{{vss}})}"
    Error: undefined symbol in: "if([v](a)>((vthresh))&v(b)>((vthresh)),((vdd)),((vss)))"
Questionable use of curly braces in "b§e_abmgate yint 0 v={if(v(a)>{{vthresh}}&v(b)>{{vthresh}}&v(c)>{{vthresh}},{{vdd}},{{vss}})}"
    Error: undefined symbol in: "if([v](a)>((vthresh))&v(b)>((vthresh))&v(c)>((vthresh)),((vdd)),((vss)))"
Questionable use of curly braces in "b§e_abmgate yint 0 v={if(v(a)>{{vthresh}}&v(b)>{{vthresh}},{{vss}},{{vdd}})}"
    Error: undefined symbol in: "if([v](a)>((vthresh))&v(b)>((vthresh)),((vss)),((vdd)))"
Questionable use of curly braces in "b§e_abmgate yint 0 v={if(v(a)>{{vthresh}}&v(b)>{{vthresh}}&v(c)>{{vthresh}},{{vdd}},{{vss}})}"
    Error: undefined symbol in: "if([v](a)>((vthresh))&v(b)>((vthresh))&v(c)>((vthresh)),((vdd)),((vss)))"
Questionable use of curly braces in "b§e_abmgate yint 0 v={if(v(a)>{{vthresh}}&v(b)>{{vthresh}},{{vdd}},{{vss}})}"
    Error: undefined symbol in: "if([v](a)>((vthresh))&v(b)>((vthresh)),((vdd)),((vss)))"
Questionable use of curly braces in "b§e_abmgate yint 0 v={if(v(a)>{{vthresh}}&v(b)>{{vthresh}},{{vdd}},{{vss}})}"
    Error: undefined symbol in: "if([v](a)>((vthresh))&v(b)>((vthresh)),((vdd)),((vss)))"
Questionable use of curly braces in "b§e_abmgate yint 0 v={if(v(a)>{{vthresh}}&v(b)>{{vthresh}}&v(c)>{{vthresh}},{{vdd}},{{vss}})}"
    Error: undefined symbol in: "if([v](a)>((vthresh))&v(b)>((vthresh))&v(c)>((vthresh)),((vdd)),((vss)))"
Questionable use of curly braces in "b§e_abmgate yint 0 v={if(v(a)>{{vthresh}}&v(b)>{{vthresh}},{{vss}},{{vdd}})}"
    Error: undefined symbol in: "if([v](a)>((vthresh))&v(b)>((vthresh)),((vss)),((vdd)))"
Questionable use of curly braces in "b§e_abmgate yint 0 v={if(v(a)>{{vthresh}}&v(b)>{{vthresh}}&v(c)>{{vthresh}},{{vdd}},{{vss}})}"
    Error: undefined symbol in: "if([v](a)>((vthresh))&v(b)>((vthresh))&v(c)>((vthresh)),((vdd)),((vss)))"
Questionable use of curly braces in "b§e_abmgate yint 0 v={if(v(a)>{{vthresh}},{{vdd}},{{vss}})}"
    Error: undefined symbol in: "if([v](a)>((vthresh)),((vdd)),((vss)))"
Questionable use of curly braces in "b§e_abmgate yint 0 v={if(v(a)>{{vthresh}},{{vdd}},{{vss}})}"
    Error: undefined symbol in: "if([v](a)>((vthresh)),((vdd)),((vss)))"
Questionable use of curly braces in "b§e_abmgate yint 0 v={if(v(a)>{{vthresh}},{{vdd}},{{vss}})}"
    Error: undefined symbol in: "if([v](a)>((vthresh)),((vdd)),((vss)))"
Questionable use of curly braces in "b§e_abmgate yint 0 v={if(v(a)>{{vthresh}},{{vdd}},{{vss}})}"
    Error: undefined symbol in: "if([v](a)>((vthresh)),((vdd)),((vss)))"
solver = Normal
Maximum thread count: 12
tnom = 27
temp = 27
method = modified trap
Instance "m:u3:1": Length shorter than recommended for a level 3 MOSFET.
Instance "m:u3:2": Length shorter than recommended for a level 3 MOSFET.
Instance "m:u4:1": Length shorter than recommended for a level 3 MOSFET.
Instance "m:u4:2": Length shorter than recommended for a level 3 MOSFET.
Instance "m:u5:1": Length shorter than recommended for a level 3 MOSFET.
Instance "m:u5:2": Length shorter than recommended for a level 3 MOSFET.
Instance "m:u6:1": Length shorter than recommended for a level 3 MOSFET.
Instance "m:u6:2": Length shorter than recommended for a level 3 MOSFET.
Direct Newton iteration failed to find .op point.  (Use ".option noopiter" to skip.)
Starting Gmin stepping
Gmin = 10
Gmin = 1.07374
Gmin = 0.115292
Gmin = 0.0123794
Gmin = 0.00132923
Gmin = 0.000142725
Gmin = 1.5325e-05
Gmin = 1.6455e-06
Gmin = 1.76685e-07
Gmin = 1.89714e-08
Gmin = 2.03704e-09
Gmin = 2.18725e-10
Gmin = 2.34854e-11
Gmin = 2.52173e-12
Gmin = 2.70769e-13
vernier = 0.5
Terminal Gmin changed to 1e-14
Gmin = 1.08185e-13
vernier = 0.666667
vernier = 0.333333
Gmin = 4.07146e-14
vernier = 0.444444
vernier = 0.222222
vernier = 0.111111
Gmin = 2.51852e-14
vernier = 0.0555555
vernier = 0.0277778
vernier = 0.0138889
vernier = 0.00694444
Gmin = 2.40022e-14
vernier = 0.00347222
vernier = 0.00173611
vernier = 0.000868055
vernier = 0.000434028
Gmin = 0
Gmin stepping failed

Starting source stepping with srcstepmethod=0
Source Step = 3.0303%
Source Step = 33.3333%
Source Step = 63.6364%
Source Step = 93.9394%
vernier = 0.25
Source Step = 94.188%
Source Step = 94.2324%
Source Step = 94.262%
Source Step = 94.2915%
Source Step = 94.3211%
Source Step = 94.3507%
Source Step = 94.3803%
Source Step = 94.4099%
Source Step = 94.4395%
Source Step = 94.4691%
Source Step = 94.4987%
Source Step = 94.5283%
Source Step = 94.5579%
Source Step = 94.5875%
Source Step = 94.6171%
Source Step = 94.6467%
Source Step = 94.6763%
Source Step = 94.7058%
Source Step = 94.7354%
Source Step = 94.765%
Source Step = 94.7946%
Source Step = 94.8242%
Source Step = 94.8538%
Source Step = 94.8834%
Source Step = 94.913%
Source Step = 94.9426%
Source Step = 94.9722%
Source Step = 95.0018%
Source Step = 95.0314%
Source Step = 95.061%
Source Step = 95.0906%
Source Step = 95.1201%
Source Step = 95.1497%
Source Step = 95.1793%
Source Step = 95.2089%
Source Step = 95.2385%
Source Step = 95.2681%
Source Step = 95.2977%
Source Step = 95.3273%
Source Step = 95.3569%
Source Step = 95.3865%
Source Step = 95.4161%
Source Step = 95.4457%
Source Step = 95.4753%
Source Step = 95.5049%
Source Step = 95.5344%
Source Step = 95.564%
Source Step = 95.5936%
Source Step = 95.6232%
Source Step = 95.6528%
Source Step = 95.6824%
Source Step = 95.712%
Source Step = 95.7416%
Source Step = 95.7712%
Source Step = 95.8008%
Source Step = 95.8304%
Source Step = 95.86%
Source Step = 95.8896%
Source Step = 95.9192%
Source Step = 95.9487%
Source Step = 95.9783%
Source Step = 96.0079%
Source Step = 96.0375%
Source Step = 96.0671%
Source Step = 96.0967%
Source Step = 96.1263%
Source Step = 96.1559%
Source Step = 96.1855%
Source Step = 96.2151%
Source Step = 96.2447%
Source Step = 96.2743%
Source Step = 96.3039%
Source Step = 96.3335%
Source Step = 96.363%
Source Step = 96.3926%
Source Step = 96.4222%
Source Step = 96.4518%
Source Step = 96.4814%
Source Step = 96.511%
Source Step = 96.5406%
Source Step = 96.5702%
Source Step = 96.5998%
Source Step = 96.6294%
Source Step = 96.659%
Source Step = 96.6886%
Source Step = 96.7182%
Source Step = 96.7478%
Source Step = 96.7773%
Source Step = 96.8069%
Source Step = 96.8365%
Source Step = 96.8661%
Source Step = 96.8957%
Source Step = 96.9253%
Source Step = 96.9549%
Source Step = 96.9845%
Source Step = 97.0141%
Source Step = 97.0437%
Source Step = 97.0733%
Source Step = 97.1029%
Source Step = 97.1325%
Source Step = 97.1621%
Source Step = 97.1916%
Source Step = 97.2212%
Source Step = 97.2508%
Source Step = 97.2804%
Source Step = 97.31%
Source Step = 97.3396%
Source Step = 97.3692%
Source Step = 97.3988%
Source Step = 97.4284%
Source Step = 97.458%
Source Step = 97.4876%
Source Step = 97.5172%
Source Step = 97.5468%
Source Step = 97.5763%
Source Step = 97.6059%
Source Step = 97.6355%
Source Step = 97.6651%
Source Step = 97.6947%
Source Step = 97.7243%
Source Step = 97.7539%
Source Step = 97.7835%
Source Step = 97.8131%
Source Step = 97.8427%
Source Step = 97.8723%
Source Step = 97.9019%
Source Step = 97.9315%
Source Step = 97.9611%
Source Step = 97.9906%
Source Step = 98.0202%
Source Step = 98.0498%
Source Step = 98.0794%
Source Step = 98.109%
Source Step = 98.1386%
Source Step = 98.1682%
Source Step = 98.1978%
Source Step = 98.2274%
Source Step = 98.257%
Source Step = 98.2866%
Source Step = 98.3162%
Source Step = 98.3458%
Source Step = 98.3754%
Source Step = 98.4049%
Source Step = 98.4345%
Source Step = 98.4641%
Source Step = 98.4937%
Source Step = 98.5233%
Source Step = 98.5529%
Source Step = 98.5825%
Source Step = 98.6121%
Source Step = 98.6417%
Source Step = 98.6713%
Source Step = 98.7009%
Source Step = 98.7305%
Source Step = 98.7601%
Source Step = 98.7897%
Source Step = 98.8192%
Source Step = 98.8488%
Source Step = 98.8784%
Source Step = 98.908%
Source Step = 98.9376%
Source Step = 98.9672%
Source Step = 98.9968%
Source Step = 99.0264%
Source Step = 99.056%
Source Step = 99.0856%
Source Step = 99.1152%
Source Step = 99.1448%
Source Step = 99.1744%
Source Step = 99.204%
Source Step = 99.2335%
Source Step = 99.2631%
Source Step = 99.2927%
Source Step = 99.3223%
Source Step = 99.3519%
Source Step = 99.3815%
Source Step = 99.4111%
Source Step = 99.4407%
Source Step = 99.4703%
Source Step = 99.4999%
Source Step = 99.5295%
Source Step = 99.5591%
Source Step = 99.5887%
Source Step = 99.6183%
Source Step = 99.6478%
Source Step = 99.6774%
Source Step = 99.707%
Source Step = 99.7366%
Source Step = 99.7662%
Source Step = 99.7958%
Source Step = 99.8254%
Source Step = 99.855%
Source Step = 99.8846%
Source Step = 99.9142%
Source Step = 99.9438%
Source Step = 99.9734%
Source Step = 100%
Source Step = 100%
Source Step = 100%
Source Step = 100%
Source Step = 100%
Source Step = 100%
Source Step = 100%
Source Step = 100%
Source stepping succeeded in finding the operating point.

Heightened Def Con from 2.04785e-14 to 2.00002e-09
Heightened Def Con from 2.93366e-07 to 2.93741e-07
Heightened Def Con from 2.96358e-07 to 2.96498e-07
Heightened Def Con from 2.99915e-07 to 3.0017e-07
Heightened Def Con from 3.02107e-07 to 3.03232e-07
Total elapsed time: 21.601 seconds.

