LTspice 24.0.12 for Windows
Circuit: * C:\users\iwolfs\Favorites\acoustic-characterization-hw\simulations\LTSpice\schematics\full_bridge_driver.asc
Start Time: Sun Apr 27 21:52:29 2025
Questionable use of curly braces in "b§e_abmgate yint 0 v={if(v(a)>{{vthresh}}&v(b)>{{vthresh}},{{vdd}},{{vss}})}"
    Error: undefined symbol in: "if([v](a)>((vthresh))&v(b)>((vthresh)),((vdd)),((vss)))"
Questionable use of curly braces in "b§e_abmgate yint 0 v={if(v(a)>{{vthresh}}&v(b)>{{vthresh}},{{vdd}},{{vss}})}"
    Error: undefined symbol in: "if([v](a)>((vthresh))&v(b)>((vthresh)),((vdd)),((vss)))"
Questionable use of curly braces in "b§e_abmgate yint 0 v={if(v(a)>{{vthresh}}&v(b)>{{vthresh}}&v(c)>{{vthresh}},{{vdd}},{{vss}})}"
    Error: undefined symbol in: "if([v](a)>((vthresh))&v(b)>((vthresh))&v(c)>((vthresh)),((vdd)),((vss)))"
Questionable use of curly braces in "b§e_abmgate yint 0 v={if(v(a)>{{vthresh}}&v(b)>{{vthresh}},{{vss}},{{vdd}})}"
    Error: undefined symbol in: "if([v](a)>((vthresh))&v(b)>((vthresh)),((vss)),((vdd)))"
Questionable use of curly braces in "b§e_abmgate yint 0 v={if(v(a)>{{vthresh}}&v(b)>{{vthresh}}&v(c)>{{vthresh}},{{vdd}},{{vss}})}"
    Error: undefined symbol in: "if([v](a)>((vthresh))&v(b)>((vthresh))&v(c)>((vthresh)),((vdd)),((vss)))"
Questionable use of curly braces in "b§e_abmgate yint 0 v={if(v(a)>{{vthresh}}&v(b)>{{vthresh}},{{vdd}},{{vss}})}"
    Error: undefined symbol in: "if([v](a)>((vthresh))&v(b)>((vthresh)),((vdd)),((vss)))"
Questionable use of curly braces in "b§e_abmgate yint 0 v={if(v(a)>{{vthresh}}&v(b)>{{vthresh}},{{vdd}},{{vss}})}"
    Error: undefined symbol in: "if([v](a)>((vthresh))&v(b)>((vthresh)),((vdd)),((vss)))"
Questionable use of curly braces in "b§e_abmgate yint 0 v={if(v(a)>{{vthresh}}&v(b)>{{vthresh}}&v(c)>{{vthresh}},{{vdd}},{{vss}})}"
    Error: undefined symbol in: "if([v](a)>((vthresh))&v(b)>((vthresh))&v(c)>((vthresh)),((vdd)),((vss)))"
Questionable use of curly braces in "b§e_abmgate yint 0 v={if(v(a)>{{vthresh}}&v(b)>{{vthresh}},{{vss}},{{vdd}})}"
    Error: undefined symbol in: "if([v](a)>((vthresh))&v(b)>((vthresh)),((vss)),((vdd)))"
Questionable use of curly braces in "b§e_abmgate yint 0 v={if(v(a)>{{vthresh}}&v(b)>{{vthresh}}&v(c)>{{vthresh}},{{vdd}},{{vss}})}"
    Error: undefined symbol in: "if([v](a)>((vthresh))&v(b)>((vthresh))&v(c)>((vthresh)),((vdd)),((vss)))"
Questionable use of curly braces in "b§e_abmgate yint 0 v={if(v(a)>{{vthresh}},{{vdd}},{{vss}})}"
    Error: undefined symbol in: "if([v](a)>((vthresh)),((vdd)),((vss)))"
Questionable use of curly braces in "b§e_abmgate yint 0 v={if(v(a)>{{vthresh}},{{vdd}},{{vss}})}"
    Error: undefined symbol in: "if([v](a)>((vthresh)),((vdd)),((vss)))"
Questionable use of curly braces in "b§e_abmgate yint 0 v={if(v(a)>{{vthresh}},{{vdd}},{{vss}})}"
    Error: undefined symbol in: "if([v](a)>((vthresh)),((vdd)),((vss)))"
Questionable use of curly braces in "b§e_abmgate yint 0 v={if(v(a)>{{vthresh}},{{vdd}},{{vss}})}"
    Error: undefined symbol in: "if([v](a)>((vthresh)),((vdd)),((vss)))"
solver = Normal
Maximum thread count: 12
tnom = 27
temp = 27
method = modified trap
Instance "m:u4:1": Length shorter than recommended for a level 3 MOSFET.
Instance "m:u4:2": Length shorter than recommended for a level 3 MOSFET.
Instance "m:u5:1": Length shorter than recommended for a level 3 MOSFET.
Instance "m:u5:2": Length shorter than recommended for a level 3 MOSFET.
Instance "m:u6:1": Length shorter than recommended for a level 3 MOSFET.
Instance "m:u6:2": Length shorter than recommended for a level 3 MOSFET.
Instance "m:u7:1": Length shorter than recommended for a level 3 MOSFET.
Instance "m:u7:2": Length shorter than recommended for a level 3 MOSFET.
Direct Newton iteration failed to find .op point.  (Use ".option noopiter" to skip.)
Starting Gmin stepping
Gmin = 10
Gmin = 1.07374
Gmin = 0.115292
Gmin = 0.0123794
Gmin = 0.00132923
Gmin = 0.000142725
Gmin = 1.5325e-05
Gmin = 1.6455e-06
Gmin = 1.76685e-07
Gmin = 1.89714e-08
Gmin = 2.03704e-09
Gmin = 2.18725e-10
Gmin = 2.34854e-11
Gmin = 2.52173e-12
vernier = 0.5
Gmin = 5.80351e-13
vernier = 0.666667
vernier = 0.888888
Gmin = 1.21732e-13
Gmin = 0
Gmin stepping failed

Starting source stepping with srcstepmethod=0
Source Step = 3.0303%
Source Step = 33.3333%
Source Step = 63.6364%
Source Step = 93.9394%
Source Step = 98.6772%
Source Step = 98.7068%
Source Step = 98.7364%
Source Step = 98.766%
Source Step = 98.7956%
Source Step = 98.8252%
Source Step = 98.8548%
Source Step = 98.8844%
Source Step = 98.9139%
Source Step = 98.9435%
Source Step = 98.9731%
Source Step = 99.0027%
Source Step = 99.0323%
Source Step = 99.0619%
Source Step = 99.0915%
Source Step = 99.1211%
Source Step = 99.1507%
Source Step = 99.1803%
Source Step = 99.2099%
Source Step = 99.2395%
Source Step = 99.2691%
Source Step = 99.2987%
Source Step = 99.3282%
Source Step = 99.3578%
Source Step = 99.3874%
Source Step = 99.417%
Source Step = 99.4466%
Source Step = 99.4762%
Source Step = 99.5058%
Source Step = 99.5354%
Source Step = 99.565%
Source Step = 99.5946%
Source Step = 99.6242%
Source Step = 99.6538%
Source Step = 99.6834%
Source Step = 99.7129%
Source Step = 99.7425%
Source Step = 99.7721%
Source Step = 99.8017%
Source Step = 99.8313%
Source Step = 99.8609%
Source Step = 99.8905%
Source Step = 99.9201%
Source Step = 99.9497%
Source Step = 99.9793%
Source Step = 100%
Source Step = 100%
Source stepping succeeded in finding the operating point.

Changing Tseed to 1e-13
Heightened Def Con from 2.00019e-13 to 1.1252e-09
Heightened Def Con from 2.73719e-07 to 2.74844e-07
Heightened Def Con from 2.92714e-07 to 2.98839e-07
Heightened Def Con from 2.99431e-07 to 3.001e-07
Heightened Def Con from 3.01778e-07 to 3.03028e-07
Total elapsed time: 20.985 seconds.

