LTspice 24.0.12 for Windows
Circuit: * C:\users\iwolfs\Favorites\acoustic-material-characterization\acoustic-preamp-hw\simulations\schematics\examples\TI_AD4001_THDD_V00.asc
Start Time: Sat May 31 13:29:47 2025
solver = Normal
Maximum thread count: 12
tnom = 27
temp = 27
method = modified trap
Direct Newton iteration for .op point succeeded.
Heightened Def Con from 0.000823999 to 0.000823999
Total elapsed time: 51.221 seconds.

